#! /usr/bin/env python3
import argparse

import numpy as np
import sys
from tvtk.api import tvtk, write_data
import h5py as h5
import os
import json
from lxml import etree
"""
see
http://lkilcher.github.io/pyTurbSim/api/pyts.html?highlight=tsdata#pyts.main.tsdata
and
http://lkilcher.github.io/pyTurbSim/api/pyts.html?highlight=tsdata#pyts.base.gridProps
"""
# Disable
def blockPrint():
    sys.stdout = open(os.devnull, 'w')

# Restore
def enablePrint():
    sys.stdout = sys.__stdout__

def read_input(input_file):
    d = dict()
    with open(input_file) as f:
        for line in f:
            try:
                key = line.split()[1]
                val = line.split()[0]
            except IndexError:
                continue
            d[key] = val
    return d

def reduce_4dmatrix(mat):
    new_mat = mat[:, ::2, ::2, ::2].copy()
    return new_mat

def reduce_vector(vec):
    new_vec = vec[::2].copy()
    return new_vec

def read_bts(file):
    print('Reading bts file...', filename + '.bts')
    data = tsread.turbsim(filename + '.bts')
    print('\tOK')
    print('Reading inp file...', filename + '.inp')
    input_data = read_input(filename + '.inp')
    print('\tOK')
    return data, input_data

parser = argparse.ArgumentParser(prog='bts2xdmf', description=
"""This script converts a turbsim .bts file into a XDMF file.\n
Paraview output is also supported.\n
Alfonso del Carre. \n
Imperial College London 2018""")
parser.add_argument('filename', help='path to the file to be converted', type=str)
parser.add_argument('-o', '--output', help='output file path and name (extension will be disregarded)', type=str, default='', const='', nargs='?')
parser.add_argument('-p', '--paraview', help='enables Paraview output', action='store_true')
parser.add_argument('--output_profile', help='plot in matplotlib the average velocity profile', action='store_true')
parser.add_argument('-c', '--coarsen', help='coarsen the mesh by a factor', type=int, default=0, const=0, nargs='?')
# parser.add_argument('-d', '--hdf5', help='generation of custom HDF5 file', action='store_false')
parser.add_argument('-x', '--xdmf', help='generation of XDMF file', action='store_true')
args = parser.parse_args()

filename = os.path.splitext(args.filename)[0]
extension = os.path.splitext(args.filename)[-1]
if not args.output == '':
    out_filename = os.path.splitext(args.output)[0]
else:
    out_filename = filename

base_name = os.path.basename(out_filename)
out_dir_name = os.path.dirname(os.path.abspath(out_filename))


blockPrint()
import pyts.io.read as tsread
enablePrint()

if extension == '.bts':
    data, input_data = read_bts(filename)
else:
    raise Exception('Not correct file type')


# velocity matrix
velocity = data.utotal
# time vector
time = data.time
dt = data.time[1] - data.time[0]
# u_inf
u_inf = float(input_data['URef'])
ref_height = float(input_data['RefHt'])

y_grid = data.grid.y
z_grid = data.grid.z

if args.coarsen:
    for i_coarse in range(args.coarsen):
        print('Coarsening mesh... ',  str(i_coarse + 1))
        time = reduce_vector(time)
        y_grid = reduce_vector(y_grid)
        z_grid = reduce_vector(z_grid)
        velocity = reduce_4dmatrix(velocity)
        print('Dimensions: ', velocity.shape)

# calculate average field
if args.output_profile:
    import matplotlib.pyplot as plt
    nz = len(z_grid)
    average_field = np.zeros((nz, 3))
    for k in range(nz):
        for i_dim in range(3):
            average_field[k, i_dim] = np.average(velocity[i_dim, k, :, :])

    plt.figure()
    colours = ['k', 'r', 'b']
    for i_dim in range(3):
        plt.plot(average_field[:, i_dim], z_grid, colours[i_dim])
    plt.title('Average velocity profile')
    plt.legend(('u', 'v', 'w'), loc='upper center')
    plt.xlabel('velocity [m/s]')
    plt.ylabel('height [m]')
    plt.grid(True)
    plt.draw()

x_grid = time*u_inf
if args.paraview:
    # grid
    y, z, x = np.meshgrid(y_grid, z_grid, x_grid, indexing='xy')
    # import pdb; pdb.set_trace()
    points = np.zeros((y.size, 3))
    out_velocity = np.zeros((y.size, 3))
    counter = 0
    # probably can be done with a 1D pointer
    for i in range(y.shape[2]):
        for j in range(y.shape[1]):
            for k in range(y.shape[0]):
                # points[counter, :] = [x[j, k, i], y[j, k, i], z[j, k, i]]
                points[counter, :] = [x[k, j, i], y[k, j, i], z[k, j, i]]
                out_velocity[counter, :] = velocity[:, k, j, i]
                counter += 1
    sg = tvtk.StructuredGrid(dimensions=x.shape, points=points)
    sg.point_data.vectors = out_velocity
    sg.point_data.vectors.name = 'velocity'
    print('Writing paraview file to... ', out_filename + '.vts')
    write_data(sg, out_filename)
    print('\tOK')

dimensions = np.array(velocity.shape[1:])
if args.xdmf:
    def write_grid_dim(grid, grid_name, u_names, u_file_names, dimensions):
        ggrid = etree.SubElement(grid, 'Grid',
                                 Name=grid_name,
                                 GridType='Uniform')
        gg_topo = etree.SubElement(ggrid, 'Topology',
                                   Reference='/Xdmf/Domain/Topology[1]')
        gg_geom = etree.SubElement(ggrid, 'Geometry',
                                   Reference='/Xdmf/Domain/Geometry[1]')
        for i, u_name in enumerate(u_names):
            attr = etree.SubElement(ggrid, 'Attribute',
                                    Name=u_name,
                                    Center='Node')
            data = etree.SubElement(attr, 'DataItem',
                                    Format='Binary',
                                    DataType='Float',
                                    Precision='8',
                                    Endian='little',
                                    Dimensions=np.array2string(dimensions, separator=' ')[1:-1])
            data.text = u_file_names[i] + grid_name

    def write_binary(xdmf_files, data, grid_name='0', route='./'):
        dimensions = np.array(data.shape[1:])
        # dimensions[1], dimensions[0] = dimensions[0], dimensions[1]

        # need to convert to data to turbulence FoR (y up)
        vx_y =  data[0, ...].copy(order='F')
        vy_y =  data[1, ...].copy(order='F')
        vz_y =  data[2, ...].copy(order='F')

        vx_y = np.reshape(vx_y, newshape=(dimensions[0], dimensions[1], dimensions[2]), order='F')
        vy_y = np.reshape(vy_y, newshape=(dimensions[0], dimensions[1], dimensions[2]), order='F')
        vz_y = np.reshape(vz_y, newshape=(dimensions[0], dimensions[1], dimensions[2]), order='F')

        print('Writing ', route + '/' + xdmf_files[0] + grid_name, '...')
        np.ravel(vx_y).astype(np.float64).tofile(route + '/' + xdmf_files[0] + grid_name)
        print('Writing ', route + '/' + xdmf_files[1] + grid_name, '...')
        np.ravel(vy_y).astype(np.float64).tofile(route + '/' + xdmf_files[1] + grid_name)
        print('Writing ', route + '/' + xdmf_files[2] + grid_name, '...')
        np.ravel(vz_y).astype(np.float64).tofile(route + '/' + xdmf_files[2] + grid_name)

    grid_name = '0'
    vel_names = ['ux', 'uy', 'uz']
    xdmf_names = ['ux', 'uy', 'uz']
    for i, name in enumerate(xdmf_names):
        xdmf_names[i] = base_name + '_' + name

    root = etree.Element('Domain')

    # Dimensions string:
    dim_string = ''
    for dim in dimensions:
        dim_string += str(dim) + '     '


    topology = etree.SubElement(root, 'Topology',
                          name='topo',
                          TopologyType='3DCoRectMesh',
                          Dimensions=dim_string)

    # Geometry
    geometry = etree.SubElement(root, 'Geometry',
                                name='geo',
                                Type='ORIGIN_DXDYDZ')
    origin = etree.SubElement(geometry, 'DataItem',
                              Format='XML',
                              Dimensions='3')
    origin.text = str(z_grid[0]) + ' ' + str(y_grid[0]) + ' ' + str(x_grid[0])

    # spacing of the grid
    dxdydz_vec = np.array([z_grid[1] - z_grid[0],
                           y_grid[1] - y_grid[0],
                           x_grid[1] - x_grid[0]])

    print('dy, dz, dx = ', dxdydz_vec)
    dxdydz= etree.SubElement(geometry, 'DataItem',
                              Format='XML',
                              Dimensions='3')
    dxdydz.text = np.array2string(dxdydz_vec, separator=' ')[1:-1]

    # grid
    grid = etree.SubElement(root, 'Grid',
                            Name='Timeseries',
                            GridType='Collection',
                            CollectionType='Temporal')
    time = etree.SubElement(grid, 'Time',
                            TimeType='HyperSlab')
    time_item = etree.SubElement(time, 'DataItem',
                                 Format='XML',
                                 NumberType='Float',
                                 Dimensions='3')
    time_item.text = '0.0 1.0'

    write_grid_dim(grid, grid_name, vel_names, xdmf_names, dimensions)

    # now binary files
    write_binary(xdmf_names, velocity, route=out_dir_name)


    with open(out_filename + '.xdmf', 'w') as f:
        print('Writing xdmf file to... ', out_filename + '.xdmf')
        f.write(r'<!DOCTYPE Xdmf SYSTEM "Xdmf.dtd" []>' + '\n')
        f.write(r'<Xdmf xmlns:xi="http://www.w3.org/2001/XInclude" Version="2.0">' + '\n')
        f.write((etree.tostring(root, pretty_print=True, encoding='unicode')))
        f.write(r'</Xdmf>')
    print('\tOK')

if args.output_profile:
    # keep plots open
    plt.show()
